Version 4
SHEET 1 880 680
WIRE -224 -128 -352 -128
WIRE 464 -128 -224 -128
WIRE -224 -96 -224 -128
WIRE 464 -80 464 -128
WIRE 0 -48 -32 -48
WIRE 256 -48 224 -48
WIRE 0 16 -128 16
WIRE 688 16 224 16
WIRE 464 48 464 0
WIRE 544 48 464 48
WIRE 688 48 688 16
WIRE -352 64 -352 -128
WIRE -224 80 -224 -16
WIRE 0 80 -224 80
WIRE 336 80 224 80
WIRE -224 96 -224 80
WIRE 464 128 464 48
WIRE 0 144 -48 144
WIRE 256 144 224 144
WIRE 576 160 512 160
WIRE -128 176 -128 16
WIRE -128 176 -224 176
WIRE 576 192 576 160
WIRE -224 208 -224 176
WIRE -128 208 -128 176
WIRE 336 208 336 80
WIRE 336 208 -128 208
WIRE -352 320 -352 144
WIRE -224 320 -224 272
WIRE -224 320 -352 320
WIRE 464 320 464 224
WIRE 464 320 -224 320
WIRE 576 320 576 272
WIRE 576 320 464 320
WIRE 688 320 688 128
WIRE 688 320 576 320
WIRE -352 368 -352 320
FLAG -352 368 0
FLAG -48 144 Vcc
FLAG -352 -128 Vcc
FLAG 256 -48 Vcc
FLAG 256 144 0
FLAG -32 -48 CV
FLAG 544 48 CV
SYMBOL 555_ 112 48 R0
SYMATTR InstName U1
SYMBOL res 448 -96 R0
SYMATTR InstName R1
SYMATTR Value 5k
SYMBOL res -240 -112 R0
SYMATTR InstName R2
SYMATTR Value 2k
SYMBOL res -240 80 R0
SYMATTR InstName R3
SYMATTR Value 10k
SYMBOL cap -240 208 R0
SYMATTR InstName C1
SYMATTR Value 47µ
SYMBOL res 672 32 R0
SYMATTR InstName R4
SYMATTR Value 1k
SYMBOL pjf 512 224 R180
SYMATTR InstName J2
SYMATTR Value KP103K
SYMBOL voltage -352 48 R0
WINDOW 123 0 0 Left 0
WINDOW 39 0 0 Left 0
SYMATTR InstName V1
SYMATTR Value 9
SYMBOL voltage 576 176 R0
WINDOW 123 0 0 Left 0
WINDOW 39 24 124 Left 2
SYMATTR SpiceLine Rser=1000k
SYMATTR InstName V2
SYMATTR Value SINE(0 2 50)
TEXT -256 368 Left 2 !.tran 2s
